# created with PyMOL 2.5.4
@<TRIPOS>MOLECULE
7l1u
40 39 6                 
SMALL
USER_CHARGES
@<TRIPOS>ATOM
1	   N	0.030	-0.991	1.849	N.3	1	ALA23	0.000	
2	  CA	-1.055	-0.275	1.201	C.3	1	ALA23	0.000	
3	   C	-1.272	-0.838	-0.194	C.2	1	ALA23	0.000	
4	   O	-0.312	-1.093	-0.926	O.2	1	ALA23	0.000	
5	  CB	-0.759	1.223	1.122	C.3	1	ALA23	0.000	
6	   N	-2.536	-1.035	-0.555	N.am	2	GLY24	0.000	
7	  CA	-2.890	-1.553	-1.855	C.3	2	GLY24	0.000	
8	   C	-3.067	-3.053	-1.926	C.2	2	GLY24	0.000	
9	   O	-3.631	-3.546	-2.911	O.2	2	GLY24	0.000	
10	   N	-2.606	-3.792	-0.923	N.am	3	ILE25	0.000	
11	  CA	-2.834	-5.231	-0.854	C.3	3	ILE25	0.000	
12	   C	-4.301	-5.464	-0.521	C.2	3	ILE25	0.000	
13	   O	-4.789	-5.042	0.529	O.2	3	ILE25	0.000	
14	  CB	-1.909	-5.901	0.165	C.3	3	ILE25	0.000	
15	 CG1	-1.660	-4.973	1.354	C.3	3	ILE25	0.000	
16	 CG2	-0.617	-6.305	-0.490	C.3	3	ILE25	0.000	
17	 CD1	-0.672	-5.505	2.349	C.3	3	ILE25	0.000	
18	   N	-5.012	-6.111	-1.438	N.am	4	LEU26	0.000	
19	  CA	-6.447	-6.286	-1.296	C.3	4	LEU26	0.000	
20	   C	-6.763	-7.260	-0.172	C.2	4	LEU26	0.000	
21	   O	-6.073	-8.264	0.013	O.2	4	LEU26	0.000	
22	  CB	-7.040	-6.795	-2.607	C.3	4	LEU26	0.000	
23	  CG	-7.054	-5.821	-3.778	C.3	4	LEU26	0.000	
24	 CD1	-7.679	-6.473	-4.991	C.3	4	LEU26	0.000	
25	 CD2	-7.816	-4.579	-3.390	C.3	4	LEU26	0.000	
26	   N	-7.804	-6.951	0.589	N.am	5	THR27	0.000	
27	  CA	-8.267	-7.892	1.592	C.3	5	THR27	0.000	
28	   C	-8.976	-9.062	0.920	C.2	5	THR27	0.000	
29	   O	-9.612	-8.911	-0.127	O.2	5	THR27	0.000	
30	  CB	-9.180	-7.195	2.605	C.3	5	THR27	0.000	
31	 CG2	-10.357	-6.515	1.937	C.3	5	THR27	0.000	
32	 OG1	-9.655	-8.150	3.558	O.3	5	THR27	0.000	
33	   N	-8.798	-10.262	1.473	N.am	6	LEU28	-0.416	
34	  CA	-9.358	-11.539	1.043	C.3	6	LEU28	-0.052	
35	   C	-9.006	-11.825	-0.398	C.2	6	LEU28	0.597	
36	   O	-8.082	-11.329	-0.992	O.2	6	LEU28	-0.568	
37	  CB	-10.898	-11.559	1.252	C.3	6	LEU28	-0.110	
38	  CG	-11.442	-11.371	2.695	C.3	6	LEU28	0.353	
39	 CD1	-12.976	-11.306	2.676	C.3	6	LEU28	-0.412	
40	 CD2	-10.983	-12.484	3.652	C.3	6	LEU28	-0.412	
@<TRIPOS>BOND
1 1 2 1
2 2 3 1
3 2 5 1
4 3 4 2
5 3 6 1
6 6 7 1
7 7 8 1
8 8 9 2
9 8 10 1
10 10 11 1
11 11 12 1
12 11 14 1
13 12 13 2
14 12 18 1
15 14 15 1
16 14 16 1
17 15 17 1
18 18 19 1
19 19 20 1
20 19 22 1
21 20 21 2
22 20 26 1
23 22 23 1
24 23 24 1
25 23 25 1
26 26 27 1
27 27 28 1
28 27 30 1
29 28 29 2
30 28 33 1
31 30 31 1
32 30 32 1
33 33 34 1
34 34 35 1
35 34 37 1
36 35 36 2
37 37 38 1
38 38 39 1
39 38 40 1
@<TRIPOS>SUBSTRUCTURE
1	ALA23	1	RESIDUE	1 L	ALA
2	GLY24	6	RESIDUE	1 L	GLY
3	ILE25	10	RESIDUE	1 L	ILE
4	LEU26	18	RESIDUE	1 L	LEU
5	THR27	26	RESIDUE	1 L	THR
6	LEU28	33	RESIDUE	1 L	LEU
