# created with PyMOL 2.5.4
@<TRIPOS>MOLECULE
7l1u
31 30 4                 
SMALL
USER_CHARGES
@<TRIPOS>ATOM
1	   N	-2.012	1.253	-1.148	N.3	1	ILE25	0.000	
2	  CA	-2.473	-0.062	-0.716	C.3	1	ILE25	0.000	
3	   C	-1.272	-0.839	-0.194	C.2	1	ILE25	0.000	
4	   O	-0.312	-1.092	-0.926	O.2	1	ILE25	0.000	
5	  CB	-3.183	-0.811	-1.845	C.3	1	ILE25	0.000	
6	 CG1	-2.541	-0.482	-3.193	C.3	1	ILE25	0.000	
7	 CG2	-4.651	-0.481	-1.847	C.3	1	ILE25	0.000	
8	 CD1	-3.248	-1.086	-4.370	C.3	1	ILE25	0.000	
9	   N	-1.313	-1.185	1.087	N.am	2	LEU26	0.000	
10	  CA	-0.177	-1.818	1.735	C.3	2	LEU26	0.000	
11	   C	0.017	-3.235	1.220	C.2	2	LEU26	0.000	
12	   O	-0.948	-3.964	0.983	O.2	2	LEU26	0.000	
13	  CB	-0.387	-1.839	3.247	C.3	2	LEU26	0.000	
14	  CG	-0.328	-0.498	3.966	C.3	2	LEU26	0.000	
15	 CD1	-0.545	-0.691	5.451	C.3	2	LEU26	0.000	
16	 CD2	1.005	0.156	3.705	C.3	2	LEU26	0.000	
17	   N	1.273	-3.620	1.033	N.am	3	THR27	0.000	
18	  CA	1.559	-4.998	0.683	C.3	3	THR27	0.000	
19	   C	1.359	-5.897	1.898	C.2	3	THR27	0.000	
20	   O	1.583	-5.489	3.041	O.2	3	THR27	0.000	
21	  CB	2.979	-5.128	0.123	C.3	3	THR27	0.000	
22	 CG2	4.021	-4.601	1.088	C.3	3	THR27	0.000	
23	 OG1	3.252	-6.500	-0.176	O.3	3	THR27	0.000	
24	   N	0.846	-7.105	1.665	N.am	4	LEU28	-0.416	
25	  CA	0.558	-8.158	2.634	C.3	4	LEU28	-0.052	
26	   C	-0.361	-7.655	3.721	C.2	4	LEU28	0.597	
27	   O	-1.089	-6.699	3.619	O.2	4	LEU28	-0.568	
28	  CB	1.876	-8.720	3.239	C.3	4	LEU28	-0.110	
29	  CG	2.907	-9.364	2.272	C.3	4	LEU28	0.353	
30	 CD1	4.179	-9.751	3.038	C.3	4	LEU28	-0.412	
31	 CD2	2.347	-10.597	1.542	C.3	4	LEU28	-0.412	
@<TRIPOS>BOND
1 1 2 1
2 2 3 1
3 2 5 1
4 3 4 2
5 3 9 1
6 5 6 1
7 5 7 1
8 6 8 1
9 9 10 1
10 10 11 1
11 10 13 1
12 11 12 2
13 11 17 1
14 13 14 1
15 14 15 1
16 14 16 1
17 17 18 1
18 18 19 1
19 18 21 1
20 19 20 2
21 19 24 1
22 21 22 1
23 21 23 1
24 24 25 1
25 25 26 1
26 25 28 1
27 26 27 2
28 28 29 1
29 29 30 1
30 29 31 1
@<TRIPOS>SUBSTRUCTURE
1	ILE25	1	RESIDUE	1 L	ILE
2	LEU26	9	RESIDUE	1 L	LEU
3	THR27	17	RESIDUE	1 L	THR
4	LEU28	24	RESIDUE	1 L	LEU
