# created with PyMOL 2.5.4
@<TRIPOS>MOLECULE
7l1u
45 44 7                 
SMALL
USER_CHARGES
@<TRIPOS>ATOM
1	   N	-2.498	1.275	0.157	N.3	1	ALA22	0.000	
2	  CA	-2.385	0.082	-0.673	C.3	1	ALA22	0.000	
3	   C	-1.272	-0.838	-0.193	C.2	1	ALA22	0.000	
4	   O	-0.312	-1.093	-0.927	O.2	1	ALA22	0.000	
5	  CB	-2.144	0.474	-2.129	C.3	1	ALA22	0.000	
6	   N	-1.395	-1.347	1.029	N.am	2	ALA23	0.000	
7	  CA	-0.398	-2.214	1.631	C.3	2	ALA23	0.000	
8	   C	-1.039	-3.539	2.007	C.2	2	ALA23	0.000	
9	   O	-2.146	-3.570	2.553	O.2	2	ALA23	0.000	
10	  CB	0.228	-1.564	2.864	C.3	2	ALA23	0.000	
11	   N	-0.342	-4.632	1.711	N.am	3	GLY24	0.000	
12	  CA	-0.824	-5.956	2.023	C.3	3	GLY24	0.000	
13	   C	-1.590	-6.642	0.914	C.2	3	GLY24	0.000	
14	   O	-1.795	-7.860	0.989	O.2	3	GLY24	0.000	
15	   N	-2.019	-5.907	-0.106	N.am	4	ILE25	0.000	
16	  CA	-2.663	-6.503	-1.271	C.3	4	ILE25	0.000	
17	   C	-1.601	-7.237	-2.079	C.2	4	ILE25	0.000	
18	   O	-0.637	-6.634	-2.556	O.2	4	ILE25	0.000	
19	  CB	-3.390	-5.452	-2.114	C.3	4	ILE25	0.000	
20	 CG1	-2.630	-4.126	-2.087	C.3	4	ILE25	0.000	
21	 CG2	-4.803	-5.279	-1.627	C.3	4	ILE25	0.000	
22	 CD1	-3.331	-3.006	-2.795	C.3	4	ILE25	0.000	
23	   N	-1.764	-8.549	-2.201	N.am	5	LEU26	0.000	
24	  CA	-0.757	-9.379	-2.840	C.3	5	LEU26	0.000	
25	   C	-0.707	-9.111	-4.336	C.2	5	LEU26	0.000	
26	   O	-1.738	-8.915	-4.982	O.2	5	LEU26	0.000	
27	  CB	-1.061	-10.852	-2.586	C.3	5	LEU26	0.000	
28	  CG	-0.882	-11.354	-1.159	C.3	5	LEU26	0.000	
29	 CD1	-1.212	-12.827	-1.078	C.3	5	LEU26	0.000	
30	 CD2	0.535	-11.101	-0.710	C.3	5	LEU26	0.000	
31	   N	0.501	-9.089	-4.883	N.am	6	THR27	0.000	
32	  CA	0.637	-8.985	-6.324	C.3	6	THR27	0.000	
33	   C	0.252	-10.307	-6.980	C.2	6	THR27	0.000	
34	   O	0.454	-11.385	-6.415	O.2	6	THR27	0.000	
35	  CB	2.061	-8.570	-6.703	C.3	6	THR27	0.000	
36	 CG2	3.099	-9.520	-6.142	C.3	6	THR27	0.000	
37	 OG1	2.182	-8.514	-8.127	O.3	6	THR27	0.000	
38	   N	-0.389	-10.227	-8.145	N.am	7	LEU28	-0.416	
39	  CA	-0.864	-11.323	-8.984	C.3	7	LEU28	-0.052	
40	   C	-1.780	-12.238	-8.208	C.2	7	LEU28	0.597	
41	   O	-2.378	-11.928	-7.207	O.2	7	LEU28	-0.568	
42	  CB	0.334	-12.113	-9.581	C.3	7	LEU28	-0.110	
43	  CG	1.336	-11.347	-10.488	C.3	7	LEU28	0.353	
44	 CD1	2.501	-12.265	-10.881	C.3	7	LEU28	-0.412	
45	 CD2	0.675	-10.778	-11.754	C.3	7	LEU28	-0.412	
@<TRIPOS>BOND
1 1 2 1
2 2 3 1
3 2 5 1
4 3 4 2
5 3 6 1
6 6 7 1
7 7 8 1
8 7 10 1
9 8 9 2
10 8 11 1
11 11 12 1
12 12 13 1
13 13 14 2
14 13 15 1
15 15 16 1
16 16 17 1
17 16 19 1
18 17 18 2
19 17 23 1
20 19 20 1
21 19 21 1
22 20 22 1
23 23 24 1
24 24 25 1
25 24 27 1
26 25 26 2
27 25 31 1
28 27 28 1
29 28 29 1
30 28 30 1
31 31 32 1
32 32 33 1
33 32 35 1
34 33 34 2
35 33 38 1
36 35 36 1
37 35 37 1
38 38 39 1
39 39 40 1
40 39 42 1
41 40 41 2
42 42 43 1
43 43 44 1
44 43 45 1
@<TRIPOS>SUBSTRUCTURE
1	ALA22	1	RESIDUE	1 L	ALA
2	ALA23	6	RESIDUE	1 L	ALA
3	GLY24	11	RESIDUE	1 L	GLY
4	ILE25	15	RESIDUE	1 L	ILE
5	LEU26	23	RESIDUE	1 L	LEU
6	THR27	31	RESIDUE	1 L	THR
7	LEU28	38	RESIDUE	1 L	LEU
