# created with PyMOL 2.5.4
@<TRIPOS>MOLECULE
7l1u
35 34 5                 
SMALL
USER_CHARGES
@<TRIPOS>ATOM
1	   N	-3.179	-1.659	1.196	N.3	1	GLY24	0.000	
2	  CA	-2.290	-1.920	0.088	C.3	1	GLY24	0.000	
3	   C	-1.273	-0.838	-0.193	C.2	1	GLY24	0.000	
4	   O	-0.311	-1.093	-0.927	O.2	1	GLY24	0.000	
5	   N	-1.451	0.356	0.362	N.am	2	ILE25	0.000	
6	  CA	-0.462	1.421	0.240	C.3	2	ILE25	0.000	
7	   C	0.739	1.057	1.101	C.2	2	ILE25	0.000	
8	   O	0.624	0.906	2.320	O.2	2	ILE25	0.000	
9	  CB	-1.046	2.781	0.628	C.3	2	ILE25	0.000	
10	 CG1	-2.061	2.625	1.760	C.3	2	ILE25	0.000	
11	 CG2	-1.666	3.445	-0.571	C.3	2	ILE25	0.000	
12	 CD1	-2.768	3.895	2.128	C.3	2	ILE25	0.000	
13	   N	1.888	0.882	0.458	N.am	3	LEU26	0.000	
14	  CA	3.076	0.412	1.149	C.3	3	LEU26	0.000	
15	   C	3.611	1.480	2.089	C.2	3	LEU26	0.000	
16	   O	3.604	2.670	1.771	O.2	3	LEU26	0.000	
17	  CB	4.149	0.029	0.134	C.3	3	LEU26	0.000	
18	  CG	3.883	-1.211	-0.711	C.3	3	LEU26	0.000	
19	 CD1	5.039	-1.458	-1.655	C.3	3	LEU26	0.000	
20	 CD2	3.671	-2.400	0.192	C.3	3	LEU26	0.000	
21	   N	4.064	1.050	3.260	N.am	4	THR27	0.000	
22	  CA	4.724	1.976	4.160	C.3	4	THR27	0.000	
23	   C	6.114	2.314	3.632	C.2	4	THR27	0.000	
24	   O	6.777	1.490	2.997	O.2	4	THR27	0.000	
25	  CB	4.793	1.396	5.576	C.3	4	THR27	0.000	
26	 CG2	5.484	0.048	5.605	C.3	4	THR27	0.000	
27	 OG1	5.483	2.308	6.435	O.3	4	THR27	0.000	
28	   N	6.531	3.567	3.815	N.am	5	LEU28	-0.416	
29	  CA	7.807	4.154	3.419	C.3	5	LEU28	-0.052	
30	   C	8.044	3.981	1.938	C.2	5	LEU28	0.597	
31	   O	7.180	3.782	1.121	O.2	5	LEU28	-0.568	
32	  CB	8.972	3.538	4.244	C.3	5	LEU28	-0.110	
33	  CG	8.941	3.702	5.788	C.3	5	LEU28	0.353	
34	 CD1	10.106	2.932	6.424	C.3	5	LEU28	-0.412	
35	 CD2	8.990	5.174	6.230	C.3	5	LEU28	-0.412	
@<TRIPOS>BOND
1 1 2 1
2 2 3 1
3 3 4 2
4 3 5 1
5 5 6 1
6 6 7 1
7 6 9 1
8 7 8 2
9 7 13 1
10 9 10 1
11 9 11 1
12 10 12 1
13 13 14 1
14 14 15 1
15 14 17 1
16 15 16 2
17 15 21 1
18 17 18 1
19 18 19 1
20 18 20 1
21 21 22 1
22 22 23 1
23 22 25 1
24 23 24 2
25 23 28 1
26 25 26 1
27 25 27 1
28 28 29 1
29 29 30 1
30 29 32 1
31 30 31 2
32 32 33 1
33 33 34 1
34 33 35 1
@<TRIPOS>SUBSTRUCTURE
1	GLY24	1	RESIDUE	1 L	GLY
2	ILE25	5	RESIDUE	1 L	ILE
3	LEU26	13	RESIDUE	1 L	LEU
4	THR27	21	RESIDUE	1 L	THR
5	LEU28	28	RESIDUE	1 L	LEU
