# created with PyMOL 2.5.4
@<TRIPOS>MOLECULE
7l1u
35 34 5                 
SMALL
USER_CHARGES
@<TRIPOS>ATOM
1	   N	122.676	123.719	168.612	N.am	1	GLY24	0.000	
2	  CA	122.226	122.599	167.820	C.3	1	GLY24	0.000	
3	   C	121.637	122.955	166.474	C.2	1	GLY24	0.000	
4	   O	121.485	122.064	165.629	O.2	1	GLY24	0.000	
5	   N	121.300	124.220	166.246	N.am	2	ILE25	0.000	
6	  CA	120.834	124.673	164.940	C.3	2	ILE25	0.000	
7	   C	122.022	124.683	163.988	C.2	2	ILE25	0.000	
8	   O	123.006	125.393	164.208	O.2	2	ILE25	0.000	
9	  CB	120.165	126.047	165.025	C.3	2	ILE25	0.000	
10	 CG1	120.849	126.911	166.084	C.3	2	ILE25	0.000	
11	 CG2	118.696	125.895	165.312	C.3	2	ILE25	0.000	
12	 CD1	120.185	128.236	166.314	C.3	2	ILE25	0.000	
13	   N	121.941	123.865	162.945	N.am	3	LEU26	0.000	
14	  CA	123.059	123.690	162.034	C.3	3	LEU26	0.000	
15	   C	123.278	124.944	161.203	C.2	3	LEU26	0.000	
16	   O	122.326	125.598	160.774	O.2	3	LEU26	0.000	
17	  CB	122.800	122.498	161.117	C.3	3	LEU26	0.000	
18	  CG	122.827	121.118	161.762	C.3	3	LEU26	0.000	
19	 CD1	122.563	120.051	160.723	C.3	3	LEU26	0.000	
20	 CD2	124.164	120.897	162.423	C.3	3	LEU26	0.000	
21	   N	124.542	125.286	160.988	N.am	4	THR27	0.000	
22	  CA	124.848	126.382	160.088	C.3	4	THR27	0.000	
23	   C	124.613	125.951	158.644	C.2	4	THR27	0.000	
24	   O	124.797	124.785	158.285	O.2	4	THR27	0.000	
25	  CB	126.286	126.866	160.297	C.3	4	THR27	0.000	
26	 CG2	127.293	125.747	160.128	C.3	4	THR27	0.000	
27	 OG1	126.577	127.917	159.372	O.3	4	THR27	0.000	
28	   N	124.116	126.875	157.822	N.am	5	LEU28	-0.416	
29	  CA	123.803	126.737	156.403	C.3	5	LEU28	-0.052	
30	   C	122.845	125.593	156.171	C.2	5	LEU28	0.597	
31	   O	122.115	125.125	157.009	O.2	5	LEU28	-0.568	
32	  CB	125.103	126.549	155.572	C.3	5	LEU28	-0.110	
33	  CG	126.169	127.678	155.618	C.3	5	LEU28	0.353	
34	 CD1	127.418	127.257	154.831	C.3	5	LEU28	-0.412	
35	 CD2	125.641	129.016	155.074	C.3	5	LEU28	-0.412	
@<TRIPOS>BOND
1 1 2 1
2 2 3 1
3 3 4 2
4 3 5 1
5 5 6 1
6 6 7 1
7 6 9 1
8 7 8 2
9 7 13 1
10 9 10 1
11 9 11 1
12 10 12 1
13 13 14 1
14 14 15 1
15 14 17 1
16 15 16 2
17 15 21 1
18 17 18 1
19 18 19 1
20 18 20 1
21 21 22 1
22 22 23 1
23 22 25 1
24 23 24 2
25 23 28 1
26 25 26 1
27 25 27 1
28 28 29 1
29 29 30 1
30 29 32 1
31 30 31 2
32 32 33 1
33 33 34 1
34 33 35 1
@<TRIPOS>SUBSTRUCTURE
1	GLY24	1	RESIDUE	1 L	GLY
2	ILE25	5	RESIDUE	1 L	ILE
3	LEU26	13	RESIDUE	1 L	LEU
4	THR27	21	RESIDUE	1 L	THR
5	LEU28	28	RESIDUE	1 L	LEU
