# created with PyMOL 2.5.4
@<TRIPOS>MOLECULE
7l1u
40 39 6                 
SMALL
USER_CHARGES
@<TRIPOS>ATOM
1	   N	121.552	126.552	170.366	N.am	1	ALA23	0.000	
2	  CA	122.510	125.464	170.280	C.3	1	ALA23	0.000	
3	   C	121.894	124.306	169.513	C.2	1	ALA23	0.000	
4	   O	120.732	123.953	169.732	O.2	1	ALA23	0.000	
5	  CB	122.947	125.001	171.670	C.3	1	ALA23	0.000	
6	   N	122.676	123.719	168.612	N.am	2	GLY24	0.000	
7	  CA	122.226	122.599	167.820	C.3	2	GLY24	0.000	
8	   C	121.637	122.955	166.474	C.2	2	GLY24	0.000	
9	   O	121.485	122.064	165.629	O.2	2	GLY24	0.000	
10	   N	121.300	124.220	166.246	N.am	3	ILE25	0.000	
11	  CA	120.834	124.673	164.940	C.3	3	ILE25	0.000	
12	   C	122.022	124.683	163.988	C.2	3	ILE25	0.000	
13	   O	123.006	125.393	164.208	O.2	3	ILE25	0.000	
14	  CB	120.165	126.047	165.025	C.3	3	ILE25	0.000	
15	 CG1	120.849	126.911	166.084	C.3	3	ILE25	0.000	
16	 CG2	118.696	125.895	165.312	C.3	3	ILE25	0.000	
17	 CD1	120.185	128.236	166.314	C.3	3	ILE25	0.000	
18	   N	121.941	123.865	162.945	N.am	4	LEU26	0.000	
19	  CA	123.059	123.690	162.034	C.3	4	LEU26	0.000	
20	   C	123.278	124.944	161.203	C.2	4	LEU26	0.000	
21	   O	122.326	125.598	160.774	O.2	4	LEU26	0.000	
22	  CB	122.800	122.498	161.117	C.3	4	LEU26	0.000	
23	  CG	122.827	121.118	161.762	C.3	4	LEU26	0.000	
24	 CD1	122.563	120.051	160.723	C.3	4	LEU26	0.000	
25	 CD2	124.164	120.897	162.423	C.3	4	LEU26	0.000	
26	   N	124.542	125.286	160.988	N.am	5	THR27	0.000	
27	  CA	124.848	126.382	160.088	C.3	5	THR27	0.000	
28	   C	124.613	125.951	158.644	C.2	5	THR27	0.000	
29	   O	124.797	124.785	158.285	O.2	5	THR27	0.000	
30	  CB	126.286	126.866	160.297	C.3	5	THR27	0.000	
31	 CG2	127.293	125.747	160.128	C.3	5	THR27	0.000	
32	 OG1	126.577	127.917	159.372	O.3	5	THR27	0.000	
33	   N	124.116	126.875	157.822	N.am	6	LEU28	-0.416	
34	  CA	123.803	126.737	156.403	C.3	6	LEU28	-0.052	
35	   C	122.845	125.593	156.171	C.2	6	LEU28	0.597	
36	   O	122.115	125.125	157.009	O.2	6	LEU28	-0.568	
37	  CB	125.103	126.549	155.572	C.3	6	LEU28	-0.110	
38	  CG	126.169	127.678	155.618	C.3	6	LEU28	0.353	
39	 CD1	127.418	127.257	154.831	C.3	6	LEU28	-0.412	
40	 CD2	125.641	129.016	155.074	C.3	6	LEU28	-0.412	
@<TRIPOS>BOND
1 1 2 1
2 2 3 1
3 2 5 1
4 3 4 2
5 3 6 1
6 6 7 1
7 7 8 1
8 8 9 2
9 8 10 1
10 10 11 1
11 11 12 1
12 11 14 1
13 12 13 2
14 12 18 1
15 14 15 1
16 14 16 1
17 15 17 1
18 18 19 1
19 19 20 1
20 19 22 1
21 20 21 2
22 20 26 1
23 22 23 1
24 23 24 1
25 23 25 1
26 26 27 1
27 27 28 1
28 27 30 1
29 28 29 2
30 28 33 1
31 30 31 1
32 30 32 1
33 33 34 1
34 34 35 1
35 34 37 1
36 35 36 2
37 37 38 1
38 38 39 1
39 38 40 1
@<TRIPOS>SUBSTRUCTURE
1	ALA23	1	RESIDUE	1 L	ALA
2	GLY24	6	RESIDUE	1 L	GLY
3	ILE25	10	RESIDUE	1 L	ILE
4	LEU26	18	RESIDUE	1 L	LEU
5	THR27	26	RESIDUE	1 L	THR
6	LEU28	33	RESIDUE	1 L	LEU
