# created with PyMOL 2.5.4
@<TRIPOS>MOLECULE
7l1u
31 30 4                 
SMALL
USER_CHARGES
@<TRIPOS>ATOM
1	   N	121.300	124.220	166.246	N.am	1	ILE25	0.000	
2	  CA	120.834	124.673	164.940	C.3	1	ILE25	0.000	
3	   C	122.022	124.683	163.988	C.2	1	ILE25	0.000	
4	   O	123.006	125.393	164.208	O.2	1	ILE25	0.000	
5	  CB	120.165	126.047	165.025	C.3	1	ILE25	0.000	
6	 CG1	120.849	126.911	166.084	C.3	1	ILE25	0.000	
7	 CG2	118.696	125.895	165.312	C.3	1	ILE25	0.000	
8	 CD1	120.185	128.236	166.314	C.3	1	ILE25	0.000	
9	   N	121.941	123.865	162.945	N.am	2	LEU26	0.000	
10	  CA	123.059	123.690	162.034	C.3	2	LEU26	0.000	
11	   C	123.278	124.944	161.203	C.2	2	LEU26	0.000	
12	   O	122.326	125.598	160.774	O.2	2	LEU26	0.000	
13	  CB	122.800	122.498	161.117	C.3	2	LEU26	0.000	
14	  CG	122.827	121.118	161.762	C.3	2	LEU26	0.000	
15	 CD1	122.563	120.051	160.723	C.3	2	LEU26	0.000	
16	 CD2	124.164	120.897	162.423	C.3	2	LEU26	0.000	
17	   N	124.542	125.286	160.988	N.am	3	THR27	0.000	
18	  CA	124.848	126.382	160.088	C.3	3	THR27	0.000	
19	   C	124.613	125.951	158.644	C.2	3	THR27	0.000	
20	   O	124.797	124.785	158.285	O.2	3	THR27	0.000	
21	  CB	126.286	126.866	160.297	C.3	3	THR27	0.000	
22	 CG2	127.293	125.747	160.128	C.3	3	THR27	0.000	
23	 OG1	126.577	127.917	159.372	O.3	3	THR27	0.000	
24	   N	124.143	126.902	157.835	N.am	4	MET28	0.000	
25	  CA	123.806	126.727	156.415	C.3	4	MET28	0.000	
26	   C	122.841	125.581	156.131	C.2	4	MET28	0.000	
27	   O	122.115	125.125	157.009	O.2	4	MET28	0.000	
28	  CB	125.077	126.544	155.586	C.3	4	MET28	0.000	
29	  CG	125.964	127.767	155.579	C.3	4	MET28	0.000	
30	  SD	125.080	129.221	154.997	S.3	4	MET28	0.000	
31	  CE	126.324	130.486	155.228	C.3	4	MET28	0.000	
@<TRIPOS>BOND
1 1 2 1
2 2 3 1
3 2 5 1
4 3 4 2
5 3 9 1
6 5 6 1
7 5 7 1
8 6 8 1
9 9 10 1
10 10 11 1
11 10 13 1
12 11 12 2
13 11 17 1
14 13 14 1
15 14 15 1
16 14 16 1
17 17 18 1
18 18 19 1
19 18 21 1
20 19 20 2
21 19 24 1
22 21 22 1
23 21 23 1
24 24 25 1
25 25 26 1
26 25 28 1
27 26 27 2
28 28 29 1
29 29 30 1
30 30 31 1
@<TRIPOS>SUBSTRUCTURE
1	ILE25	1	RESIDUE	1 L	ILE
2	LEU26	9	RESIDUE	1 L	LEU
3	THR27	17	RESIDUE	1 L	THR
4	MET28	24	RESIDUE	1 L	MET
