# created with PyMOL 2.5.4
@<TRIPOS>MOLECULE
7l1u
45 44 7                 
SMALL
USER_CHARGES
@<TRIPOS>ATOM
1	   N	120.436	129.061	171.509	N.am	1	ALA22	0.000	
2	  CA	120.709	128.818	170.098	C.3	1	ALA22	0.000	
3	   C	121.799	127.774	169.904	C.2	1	ALA22	0.000	
4	   O	122.853	128.070	169.334	O.2	1	ALA22	0.000	
5	  CB	121.107	130.120	169.406	C.3	1	ALA22	0.000	
6	   N	121.552	126.552	170.366	N.am	2	ALA23	0.000	
7	  CA	122.510	125.464	170.280	C.3	2	ALA23	0.000	
8	   C	121.894	124.306	169.513	C.2	2	ALA23	0.000	
9	   O	120.732	123.953	169.732	O.2	2	ALA23	0.000	
10	  CB	122.947	125.001	171.670	C.3	2	ALA23	0.000	
11	   N	122.676	123.719	168.612	N.am	3	GLY24	0.000	
12	  CA	122.226	122.599	167.820	C.3	3	GLY24	0.000	
13	   C	121.637	122.955	166.474	C.2	3	GLY24	0.000	
14	   O	121.485	122.064	165.629	O.2	3	GLY24	0.000	
15	   N	121.300	124.220	166.246	N.am	4	ILE25	0.000	
16	  CA	120.834	124.673	164.940	C.3	4	ILE25	0.000	
17	   C	122.022	124.683	163.988	C.2	4	ILE25	0.000	
18	   O	123.006	125.393	164.208	O.2	4	ILE25	0.000	
19	  CB	120.165	126.047	165.025	C.3	4	ILE25	0.000	
20	 CG1	120.849	126.911	166.084	C.3	4	ILE25	0.000	
21	 CG2	118.696	125.895	165.312	C.3	4	ILE25	0.000	
22	 CD1	120.185	128.236	166.314	C.3	4	ILE25	0.000	
23	   N	121.941	123.865	162.945	N.am	5	LEU26	0.000	
24	  CA	123.059	123.690	162.034	C.3	5	LEU26	0.000	
25	   C	123.278	124.944	161.203	C.2	5	LEU26	0.000	
26	   O	122.326	125.598	160.774	O.2	5	LEU26	0.000	
27	  CB	122.800	122.498	161.117	C.3	5	LEU26	0.000	
28	  CG	122.827	121.118	161.762	C.3	5	LEU26	0.000	
29	 CD1	122.563	120.051	160.723	C.3	5	LEU26	0.000	
30	 CD2	124.164	120.897	162.423	C.3	5	LEU26	0.000	
31	   N	124.542	125.286	160.988	N.am	6	THR27	0.000	
32	  CA	124.848	126.382	160.088	C.3	6	THR27	0.000	
33	   C	124.613	125.951	158.644	C.2	6	THR27	0.000	
34	   O	124.797	124.785	158.285	O.2	6	THR27	0.000	
35	  CB	126.286	126.866	160.297	C.3	6	THR27	0.000	
36	 CG2	127.293	125.747	160.128	C.3	6	THR27	0.000	
37	 OG1	126.577	127.917	159.372	O.3	6	THR27	0.000	
38	   N	124.143	126.902	157.835	N.am	7	MET28	0.000	
39	  CA	123.806	126.727	156.415	C.3	7	MET28	0.000	
40	   C	122.841	125.581	156.131	C.2	7	MET28	0.000	
41	   O	122.115	125.125	157.009	O.2	7	MET28	0.000	
42	  CB	125.077	126.544	155.586	C.3	7	MET28	0.000	
43	  CG	125.964	127.767	155.579	C.3	7	MET28	0.000	
44	  SD	125.080	129.221	154.997	S.3	7	MET28	0.000	
45	  CE	126.324	130.486	155.228	C.3	7	MET28	0.000	
@<TRIPOS>BOND
1 1 2 1
2 2 3 1
3 2 5 1
4 3 4 2
5 3 6 1
6 6 7 1
7 7 8 1
8 7 10 1
9 8 9 2
10 8 11 1
11 11 12 1
12 12 13 1
13 13 14 2
14 13 15 1
15 15 16 1
16 16 17 1
17 16 19 1
18 17 18 2
19 17 23 1
20 19 20 1
21 19 21 1
22 20 22 1
23 23 24 1
24 24 25 1
25 24 27 1
26 25 26 2
27 25 31 1
28 27 28 1
29 28 29 1
30 28 30 1
31 31 32 1
32 32 33 1
33 32 35 1
34 33 34 2
35 33 38 1
36 35 36 1
37 35 37 1
38 38 39 1
39 39 40 1
40 39 42 1
41 40 41 2
42 42 43 1
43 43 44 1
44 44 45 1
@<TRIPOS>SUBSTRUCTURE
1	ALA22	1	RESIDUE	1 L	ALA
2	ALA23	6	RESIDUE	1 L	ALA
3	GLY24	11	RESIDUE	1 L	GLY
4	ILE25	15	RESIDUE	1 L	ILE
5	LEU26	23	RESIDUE	1 L	LEU
6	THR27	31	RESIDUE	1 L	THR
7	MET28	38	RESIDUE	1 L	MET
