# created with PyMOL 2.5.4
@<TRIPOS>MOLECULE
6tpg
58 60 1                 
SMALL
USER_CHARGES
@<TRIPOS>ATOM
1	 C01	-0.671	-2.817	4.609	C.3	1	7MA1201	0.000	
2	 C02	-0.841	-1.799	3.508	C.3	1	7MA1201	0.000	
3	 N03	0.008	-2.082	2.340	N.pl3	1	7MA1201	0.000	
4	 C04	-0.147	-3.409	1.731	C.3	1	7MA1201	0.000	
5	 C05	-1.489	-3.629	1.088	C.2	1	7MA1201	0.000	
6	 C06	-2.314	-2.568	0.743	C.2	1	7MA1201	0.000	
7	 N07	-3.518	-2.705	0.162	N.2	1	7MA1201	0.000	
8	 C08	-3.923	-3.953	-0.099	C.2	1	7MA1201	0.000	
9	 C09	-3.176	-5.069	0.197	C.2	1	7MA1201	0.000	
10	 C10	-1.946	-4.899	0.791	C.2	1	7MA1201	0.000	
11	 C11	0.889	-1.187	1.830	C.2	1	7MA1201	0.000	
12	 O12	1.438	-1.357	0.744	O.2	1	7MA1201	0.000	
13	 C13	1.187	0.073	2.635	C.3	1	7MA1201	0.000	
14	 N14	0.396	1.240	2.254	N.pl3	1	7MA1201	0.000	
15	 C15	0.096	1.499	0.922	C.2	1	7MA1201	0.000	
16	 C16	-1.182	1.260	0.428	C.2	1	7MA1201	0.000	
17	 N17	-1.523	1.508	-0.842	N.2	1	7MA1201	0.000	
18	 C18	-0.597	2.005	-1.636	C.2	1	7MA1201	0.000	
19	 C19	0.708	2.280	-1.242	C.2	1	7MA1201	0.000	
20	 C20	1.051	2.029	0.048	C.2	1	7MA1201	0.000	
21	 O21	-0.934	2.259	-2.924	O.3	1	7MA1201	0.000	
22	 C22	-2.310	2.084	-3.291	C.3	1	7MA1201	0.000	
23	 S23	-0.138	2.327	3.423	S.O2	1	7MA1201	0.000	
24	 O24	0.384	1.894	4.682	O.2	1	7MA1201	0.000	
25	 O25	-1.549	2.466	3.251	O.2	1	7MA1201	0.000	
26	 C26	0.632	3.858	3.011	C.2	1	7MA1201	0.000	
27	 C27	1.915	4.093	3.488	C.2	1	7MA1201	0.000	
28	 C28	2.565	5.266	3.169	C.2	1	7MA1201	0.000	
29	 C29	1.950	6.196	2.371	C.2	1	7MA1201	0.000	
30	 C30	0.684	5.960	1.886	C.2	1	7MA1201	0.000	
31	 C31	-0.007	4.790	2.185	C.2	1	7MA1201	0.000	
32	 C32	-1.385	4.610	1.613	C.3	1	7MA1201	0.000	
33	  H1	-1.413	-5.649	0.996	 H	1	7MA1201	0.000	
34	  H2	1.028	-0.121	3.583	 H	1	7MA1201	0.000	
35	  H3	2.138	0.289	2.531	 H	1	7MA1201	0.000	
36	  H4	1.911	2.201	0.362	 H	1	7MA1201	0.000	
37	  H5	-2.419	2.281	-4.236	 H	1	7MA1201	0.000	
38	  H6	-2.576	1.166	-3.119	 H	1	7MA1201	0.000	
39	  H7	-2.863	2.687	-2.768	 H	1	7MA1201	0.000	
40	  H8	3.429	5.428	3.501	 H	1	7MA1201	0.000	
41	  H9	-2.045	4.926	2.250	 H	1	7MA1201	0.000	
42	 H10	-1.539	3.669	1.428	 H	1	7MA1201	0.000	
43	 H11	-1.464	5.118	0.789	 H	1	7MA1201	0.000	
44	 H12	0.271	6.607	1.338	 H	1	7MA1201	0.000	
45	 H13	2.396	6.998	2.152	 H	1	7MA1201	0.000	
46	 H14	2.339	3.451	4.028	 H	1	7MA1201	0.000	
47	 H15	-1.834	0.910	1.010	 H	1	7MA1201	0.000	
48	 H16	1.332	2.632	-1.853	 H	1	7MA1201	0.000	
49	 H17	-1.780	-1.784	3.225	 H	1	7MA1201	0.000	
50	 H18	-0.617	-0.910	3.857	 H	1	7MA1201	0.000	
51	 H19	-1.216	-2.563	5.371	 H	1	7MA1201	0.000	
52	 H20	0.261	-2.853	4.877	 H	1	7MA1201	0.000	
53	 H21	-0.951	-3.690	4.289	 H	1	7MA1201	0.000	
54	 H22	-0.009	-4.089	2.425	 H	1	7MA1201	0.000	
55	 H23	0.553	-3.525	1.054	 H	1	7MA1201	0.000	
56	 H24	-3.498	-5.931	-0.003	 H	1	7MA1201	0.000	
57	 H25	-4.764	-4.070	-0.506	 H	1	7MA1201	0.000	
58	 H26	-2.012	-1.697	0.927	 H	1	7MA1201	0.000	
@<TRIPOS>BOND
1 1 2 1
2 1 51 1
3 1 52 1
4 1 53 1
5 2 3 1
6 2 49 1
7 2 50 1
8 3 4 1
9 3 11 1
10 4 5 1
11 4 54 1
12 4 55 1
13 5 6 ar
14 5 10 ar
15 6 7 ar
16 6 58 1
17 7 8 ar
18 8 9 ar
19 8 57 1
20 9 10 ar
21 9 56 1
22 10 33 1
23 11 12 2
24 11 13 1
25 13 14 1
26 13 34 1
27 13 35 1
28 14 15 1
29 14 23 1
30 15 16 ar
31 15 20 ar
32 16 17 ar
33 16 47 1
34 17 18 ar
35 18 19 ar
36 18 21 1
37 19 20 ar
38 19 48 1
39 20 36 1
40 21 22 1
41 22 37 1
42 22 38 1
43 22 39 1
44 23 24 2
45 23 25 2
46 23 26 1
47 26 27 ar
48 26 31 ar
49 27 28 ar
50 27 46 1
51 28 29 ar
52 28 40 1
53 29 30 ar
54 29 45 1
55 30 31 ar
56 30 44 1
57 31 32 1
58 32 41 1
59 32 42 1
60 32 43 1
@<TRIPOS>SUBSTRUCTURE
1	7MA1201	1	GROUP	1 A	7MA
