# created with PyMOL 2.5.4
@<TRIPOS>MOLECULE
6tpn
33 36 1                 
SMALL
USER_CHARGES
@<TRIPOS>ATOM
1	  C1	-3.334	-0.653	0.399	C.2	1	NU81201	0.000	
2	  N1	-0.851	-0.188	1.560	N.2	1	NU81201	0.000	
3	  O1	1.462	-1.461	-2.006	O.2	1	NU81201	0.000	
4	  S1	-2.227	-2.086	-1.625	S.O2	1	NU81201	0.000	
5	  C2	-3.221	0.087	1.556	C.2	1	NU81201	0.000	
6	  N2	-0.770	-0.655	-5.854	N.2	1	NU81201	0.000	
7	  O2	-3.249	-1.625	-2.512	O.2	1	NU81201	0.000	
8	  C3	-1.965	0.293	2.094	C.2	1	NU81201	0.000	
9	  N3	0.192	-1.421	-0.162	N.pl3	1	NU81201	0.000	
10	  O3	-2.036	-3.468	-1.325	O.2	1	NU81201	0.000	
11	  C4	-0.966	-0.889	0.436	C.2	1	NU81201	0.000	
12	  N4	-0.778	-1.654	-2.278	N.pl3	1	NU81201	0.000	
13	  O4	-0.369	-1.823	-7.818	O.3	1	NU81201	0.000	
14	  C5	0.390	-1.510	-1.478	C.2	1	NU81201	0.000	
15	  O5	0.240	-4.173	-6.226	O.3	1	NU81201	0.000	
16	  C6	-2.183	-1.155	-0.177	C.2	1	NU81201	0.000	
17	  C7	-0.412	-1.845	-6.428	C.2	1	NU81201	0.000	
18	  C8	-0.113	-2.991	-5.635	C.2	1	NU81201	0.000	
19	  C9	-0.203	-2.898	-4.246	C.2	1	NU81201	0.000	
20	 C10	-0.574	-1.699	-3.650	C.2	1	NU81201	0.000	
21	 C11	-0.848	-0.594	-4.490	C.2	1	NU81201	0.000	
22	 C12	1.296	-1.697	0.712	C.3	1	NU81201	0.000	
23	 C13	0.302	-4.041	4.202	C.2	1	NU81201	0.000	
24	 C14	0.411	-4.681	2.969	C.2	1	NU81201	0.000	
25	 C15	0.721	-3.962	1.817	C.2	1	NU81201	0.000	
26	 C16	0.921	-2.575	1.903	C.2	1	NU81201	0.000	
27	 C17	0.799	-1.972	3.137	C.2	1	NU81201	0.000	
28	 C18	0.495	-2.685	4.275	C.2	1	NU81201	0.000	
29	 C19	-0.668	-0.702	-8.613	C.3	1	NU81201	0.000	
30	 C20	0.553	-5.274	-5.401	C.3	1	NU81201	0.000	
31	  F1	0.008	-4.693	5.338	 F	1	NU81201	0.000	
32	  F2	0.832	-4.597	0.648	 F	1	NU81201	0.000	
33	  F3	0.987	-0.680	3.237	 F	1	NU81201	0.000	
@<TRIPOS>BOND
1 1 5 ar
2 1 16 ar
3 2 8 ar
4 2 11 ar
5 3 14 2
6 4 7 2
7 4 10 2
8 4 12 1
9 4 16 1
10 5 8 ar
11 6 17 ar
12 6 21 ar
13 9 11 1
14 9 14 1
15 9 22 1
16 11 16 ar
17 12 14 1
18 12 20 1
19 13 17 1
20 13 29 1
21 15 18 1
22 15 30 1
23 17 18 ar
24 18 19 ar
25 19 20 ar
26 20 21 ar
27 22 26 1
28 23 24 ar
29 23 28 ar
30 23 31 1
31 24 25 ar
32 25 26 ar
33 25 32 1
34 26 27 ar
35 27 28 ar
36 27 33 1
@<TRIPOS>SUBSTRUCTURE
1	NU81201	1	GROUP	1 A	NU8
