# created with PyMOL 2.5.4
@<TRIPOS>MOLECULE
7xrr
30 33 1                 
SMALL
USER_CHARGES
@<TRIPOS>ATOM
1	 C01	1.296	-1.775	-0.485	C.3	1	NRK1001	0.000	
2	 C02	0.309	-2.816	-0.052	C.3	1	NRK1001	0.000	
3	 C03	0.769	-1.828	0.978	C.3	1	NRK1001	0.000	
4	 C04	-0.169	-0.739	1.407	C.3	1	NRK1001	0.000	
5	 C05	0.799	-0.661	-1.316	C.2	1	NRK1001	0.000	
6	 C06	1.753	-2.275	2.018	C.2	1	NRK1001	0.000	
7	 C07	3.041	-1.760	2.055	C.2	1	NRK1001	0.000	
8	 C08	3.922	-2.186	3.011	C.2	1	NRK1001	0.000	
9	 C09	3.587	-3.117	3.952	C.2	1	NRK1001	0.000	
10	 C10	2.314	-3.642	3.928	C.2	1	NRK1001	0.000	
11	 C11	1.403	-3.228	2.967	C.2	1	NRK1001	0.000	
12	 O12	0.627	0.409	1.720	O.3	1	NRK1001	0.000	
13	 C13	0.133	1.624	1.364	C.2	1	NRK1001	0.000	
14	 C14	0.932	2.770	1.437	C.2	1	NRK1001	0.000	
15	 N15	0.430	3.952	1.068	N.2	1	NRK1001	0.000	
16	 C16	-0.828	4.003	0.633	C.2	1	NRK1001	0.000	
17	 N17	-1.642	2.948	0.530	N.2	1	NRK1001	0.000	
18	 C18	-1.156	1.755	0.893	C.2	1	NRK1001	0.000	
19	 O19	-0.321	-0.666	-1.810	O.2	1	NRK1001	0.000	
20	 N20	1.675	0.369	-1.434	N.pl3	1	NRK1001	0.000	
21	 C21	1.436	1.673	-1.906	C.2	1	NRK1001	0.000	
22	 C22	0.171	2.159	-2.236	C.2	1	NRK1001	0.000	
23	 C23	0.067	3.461	-2.683	C.2	1	NRK1001	0.000	
24	 C24	1.207	4.207	-2.771	C.2	1	NRK1001	0.000	
25	 C25	2.417	3.685	-2.430	C.2	1	NRK1001	0.000	
26	 N26	2.541	2.421	-1.993	N.2	1	NRK1001	0.000	
27	 C27	-1.367	5.335	0.227	C.3	1	NRK1001	0.000	
28	 C28	2.346	2.721	1.925	C.3	1	NRK1001	0.000	
29	 F29	1.125	5.495	-3.208	 F	1	NRK1001	0.000	
30	 F30	5.175	-1.662	3.028	 F	1	NRK1001	0.000	
@<TRIPOS>BOND
1 1 2 1
2 1 3 1
3 1 5 1
4 2 3 1
5 3 4 1
6 3 6 1
7 4 12 1
8 5 19 2
9 5 20 1
10 6 7 ar
11 6 11 ar
12 7 8 ar
13 8 9 ar
14 8 30 1
15 9 10 ar
16 10 11 ar
17 12 13 1
18 13 14 ar
19 13 18 ar
20 14 15 ar
21 14 28 1
22 15 16 ar
23 16 17 ar
24 16 27 1
25 17 18 ar
26 20 21 1
27 21 22 ar
28 21 26 ar
29 22 23 ar
30 23 24 ar
31 24 25 ar
32 24 29 1
33 25 26 ar
@<TRIPOS>SUBSTRUCTURE
1	NRK1001	1	GROUP	1 A	NRK
