# created with PyMOL 2.5.2
@<TRIPOS>MOLECULE
suvorexant
56 60 1                 
SMALL
USER_CHARGES
@<TRIPOS>ATOM
1	   C	-1.300	-0.831	-0.172	C.2	1	UNK0	0.000	
2	   N	-1.139	-0.371	1.073	N.pl3	1	UNK0	0.000	
3	   O	-0.284	-1.100	-0.948	O.3	1	UNK0	0.000	
4	  Cl	-3.160	-2.850	-5.562	Cl	1	UNK0	0.000	
5	   N	-2.441	-1.082	-0.801	N.2	1	UNK0	0.000	
6	   O	-1.580	3.856	0.478	O.2	1	UNK0	0.000	
7	   C	-2.100	-1.523	-2.015	C.2	1	UNK0	0.000	
8	   N	-0.394	2.142	1.310	N.pl3	1	UNK0	0.000	
9	   C	-2.840	-1.917	-3.050	C.2	1	UNK0	0.000	
10	   N	1.999	4.185	-0.136	N.pl3	1	UNK0	0.000	
11	   C	-2.227	-2.340	-4.222	C.2	1	UNK0	0.000	
12	   N	3.221	4.172	-0.096	N.2	1	UNK0	0.000	
13	   C	-0.844	-2.346	-4.305	C.3	1	UNK0	0.000	
14	   N	1.550	4.873	0.778	N.2	1	UNK0	0.000	
15	   C	-0.127	-1.927	-3.199	C.2	1	UNK0	0.000	
16	   C	-0.763	-1.531	-2.097	C.2	1	UNK0	0.000	
17	   C	0.253	-0.226	1.512	C.3	1	UNK0	0.000	
18	   C	0.695	1.159	1.076	C.3	1	UNK0	0.000	
19	   C	-1.266	2.247	2.512	C.3	1	UNK0	0.000	
20	   C	-1.741	0.893	3.052	C.3	1	UNK0	0.000	
21	   C	-2.283	0.016	1.916	C.3	1	UNK0	0.000	
22	   C	-0.665	3.043	0.349	C.2	1	UNK0	0.000	
23	   C	0.028	2.998	-0.862	C.2	1	UNK0	0.000	
24	   C	1.300	3.550	-1.078	C.2	1	UNK0	0.000	
25	   C	1.885	3.431	-2.337	C.2	1	UNK0	0.000	
26	   C	1.229	2.787	-3.382	C.2	1	UNK0	0.000	
27	   C	-0.030	2.247	-3.165	C.2	1	UNK0	0.000	
28	   C	-0.621	2.358	-1.915	C.2	1	UNK0	0.000	
29	   C	3.644	4.892	0.935	C.2	1	UNK0	0.000	
30	   C	2.549	5.353	1.507	C.2	1	UNK0	0.000	
31	   C	-0.703	1.598	-4.194	C.3	1	UNK0	0.000	
32	   C	-0.570	3.027	3.629	C.3	1	UNK0	0.000	
33	   H	-3.870	-1.908	-2.981	 H	1	UNK0	0.000	
34	   H	-0.542	-3.350	-4.518	 H	1	UNK0	0.000	
35	   H	-0.617	-1.624	-5.061	 H	1	UNK0	0.000	
36	   H	0.905	-1.920	-3.227	 H	1	UNK0	0.000	
37	   H	0.317	-0.318	2.576	 H	1	UNK0	0.000	
38	   H	0.876	-0.985	1.087	 H	1	UNK0	0.000	
39	   H	1.559	1.448	1.638	 H	1	UNK0	0.000	
40	   H	0.929	1.139	0.032	 H	1	UNK0	0.000	
41	   H	-2.137	2.775	2.185	 H	1	UNK0	0.000	
42	   H	-2.517	1.055	3.771	 H	1	UNK0	0.000	
43	   H	-0.912	0.393	3.506	 H	1	UNK0	0.000	
44	   H	-2.751	-0.857	2.320	 H	1	UNK0	0.000	
45	   H	-3.011	0.550	1.342	 H	1	UNK0	0.000	
46	   H	2.824	3.828	-2.498	 H	1	UNK0	0.000	
47	   H	1.676	2.711	-4.309	 H	1	UNK0	0.000	
48	   H	-1.560	1.958	-1.762	 H	1	UNK0	0.000	
49	   H	4.621	5.056	1.227	 H	1	UNK0	0.000	
50	   H	2.483	5.956	2.342	 H	1	UNK0	0.000	
51	   H	-0.099	1.609	-5.078	 H	1	UNK0	0.000	
52	   H	-1.627	2.100	-4.388	 H	1	UNK0	0.000	
53	   H	-0.899	0.585	-3.910	 H	1	UNK0	0.000	
54	   H	0.299	2.492	3.950	 H	1	UNK0	0.000	
55	   H	-1.241	3.145	4.454	 H	1	UNK0	0.000	
56	   H	-0.281	3.991	3.264	 H	1	UNK0	0.000	
@<TRIPOS>BOND
1 1 5 2
2 1 2 1
3 2 21 1
4 1 3 1
5 3 16 1
6 5 7 2
7 7 9 1
8 8 19 1
9 9 33 1
10 10 14 1
11 10 24 1
12 4 11 1
13 9 11 2
14 10 12 1
15 11 13 1
16 13 34 1
17 13 35 1
18 13 15 1
19 15 16 2
20 15 36 1
21 7 16 1
22 2 17 1
23 17 37 1
24 17 38 1
25 8 18 1
26 17 18 1
27 18 39 1
28 18 40 1
29 19 20 1
30 19 41 1
31 20 21 1
32 20 42 1
33 20 43 1
34 21 44 1
35 21 45 1
36 6 22 2
37 8 22 1
38 22 23 1
39 23 28 1
40 23 24 2
41 24 25 1
42 25 26 2
43 25 46 1
44 26 27 1
45 26 47 1
46 27 28 2
47 27 31 1
48 28 48 1
49 12 29 2
50 29 30 1
51 29 49 1
52 14 30 2
53 30 50 1
54 31 51 1
55 31 52 1
56 31 53 1
57 19 32 1
58 32 54 1
59 32 55 1
60 32 56 1
@<TRIPOS>SUBSTRUCTURE
1	UNK0	1	GROUP	1 ****	UNK
